@<TRIPOS>MOLECULE
RES
3 2 1 0 1
SMALL
NO_CHARGES
@<TRIPOS>CRYSIN
    6.3338     5.9426     5.0000    90.0000    90.0000    90.0000  1  1
@<TRIPOS>ATOM
       1 O            5.0000     0.0000     0.0000 O             1 RES     
       2 H            6.0000     0.0000     0.0000 H             1 RES     
       3 H            4.6662    -0.9426     0.0000 H             1 RES     
@<TRIPOS>BOND
       1        1        3 1
       2        1        2 1
@<TRIPOS>SUBSTRUCTURE
       1 RES             1 RESIDUE    0 **** ROOT      0
